*CLASS
&ALLOCATION_OBJECT
    1    1
ASSOCIATED
*SUBOBJECT
&DUMMY
*STATE
NOT_ALLOCATED
    0
*ACTION
ALLOCATE
    0    0
*END_ACTION
*END_STATE
*STATE
&VARIABLE
    0
*ACTION
RELEASE
    0    0
*END_ACTION
*END_STATE
*STATE
NOT_THERE
    1
DEAD_STATE
*END_STATE
*END_SUBOBJECT
*END_CLASS
*OBJECT
&ALLOC
    0    0    0
*STATE
NOT_ALLOCATED
    1
INITIAL_STATE
*ACTION
ALLOCATE
    1    0
STRING
ID
&nodefault
*BLOCK
  0  0
terminate
&VARIABLE
*END_ACTION
*END_STATE
*STATE
&VARIABLE
    0
*ACTION
RELEASE
    0    0
*BLOCK
  0  0
terminate
NOT_ALLOCATED
*END_ACTION
*END_STATE
*END_OBJECT
*OBJECT
&DOMAIN
    0    0    0
*STATE
READY
    0
*ACTION
DIAG
    1    0
INT
LEVEL
0
*BLOCK
  0  0
terminate
READY
*END_ACTION
*END_STATE
*END_OBJECT
*CLASS
STATUS_MMG_SIDE_A_SECTOR_01_LAYER_1TOP_ATLAS_STATUS_CLASS
    0    0
*STATE
UNINITIALIZED
    0
*WHEN
 ( STATUS_MMG_SIDE_A_SECTOR_01_LAYER_1ATLAS_DU_STATUS_FWSETACTIONS EMPTY )
    1    0
    3
STATUS_MMG_SIDE_A_SECTOR_01_LAYER_1ATLAS_DU_STATUS_FWSETACTIONS
empty
do
&NULL
    0
&THIS_OBJECT
*WHEN
 ( ANY_IN STATUS_MMG_SIDE_A_SECTOR_01......TES IN_STATE {UNINITIALIZED,DEAD} )
    1    0
    2
STATUS_MMG_SIDE_A_SECTOR_01_LAYER_1ATLAS_DU_STATUS_FWSETSTATES
any_in
in_state
    2
UNINITIALIZED
DEAD
do
&NULL
    0
&THIS_OBJECT
*WHEN
 ( ANY_IN STATUS_MMG_SIDE_A_SECTOR_01......STATUS_FWSETSTATES IN_STATE FATAL )
    1    0
    2
STATUS_MMG_SIDE_A_SECTOR_01_LAYER_1ATLAS_DU_STATUS_FWSETSTATES
any_in
in_state
    1
FATAL
do
&END_IN_STATE_WHEN2
    0
&THIS_OBJECT
*WHEN
 ( ANY_IN STATUS_MMG_SIDE_A_SECTOR_01......STATUS_FWSETSTATES IN_STATE ERROR )
    1    0
    2
STATUS_MMG_SIDE_A_SECTOR_01_LAYER_1ATLAS_DU_STATUS_FWSETSTATES
any_in
in_state
    1
ERROR
do
&END_IN_STATE_WHEN3
    0
&THIS_OBJECT
*WHEN
 ( ANY_IN STATUS_MMG_SIDE_A_SECTOR_01......ATUS_FWSETSTATES IN_STATE WARNING )
    1    0
    2
STATUS_MMG_SIDE_A_SECTOR_01_LAYER_1ATLAS_DU_STATUS_FWSETSTATES
any_in
in_state
    1
WARNING
do
&END_IN_STATE_WHEN4
    0
&THIS_OBJECT
*WHEN
 ( ALL_IN STATUS_MMG_SIDE_A_SECTOR_01......DU_STATUS_FWSETSTATES IN_STATE OK )
    1    0
    2
STATUS_MMG_SIDE_A_SECTOR_01_LAYER_1ATLAS_DU_STATUS_FWSETSTATES
all_in
in_state
    1
OK
do
&END_IN_STATE_WHEN5
    0
&THIS_OBJECT
*ACTION
&END_IN_STATE_WHEN2
    0    0
*BLOCK
  0  0
terminate
FATAL
*END_ACTION
*ACTION
&END_IN_STATE_WHEN3
    0    0
*BLOCK
  0  0
terminate
ERROR
*END_ACTION
*ACTION
&END_IN_STATE_WHEN4
    0    0
*BLOCK
  0  0
terminate
WARNING
*END_ACTION
*ACTION
&END_IN_STATE_WHEN5
    0    0
*BLOCK
  0  0
terminate
OK
*END_ACTION
*END_STATE
*STATE
OK
    0
*WHEN
 ( STATUS_MMG_SIDE_A_SECTOR_01_LAYER_1ATLAS_DU_STATUS_FWSETACTIONS EMPTY )
    1    0
    3
STATUS_MMG_SIDE_A_SECTOR_01_LAYER_1ATLAS_DU_STATUS_FWSETACTIONS
empty
do
&END_IN_STATE_WHEN0
    0
&THIS_OBJECT
*WHEN
 ( ANY_IN STATUS_MMG_SIDE_A_SECTOR_01......TES IN_STATE {UNINITIALIZED,DEAD} )
    1    0
    2
STATUS_MMG_SIDE_A_SECTOR_01_LAYER_1ATLAS_DU_STATUS_FWSETSTATES
any_in
in_state
    2
UNINITIALIZED
DEAD
do
&END_IN_STATE_WHEN1
    0
&THIS_OBJECT
*WHEN
 ( ANY_IN STATUS_MMG_SIDE_A_SECTOR_01......STATUS_FWSETSTATES IN_STATE FATAL )
    1    0
    2
STATUS_MMG_SIDE_A_SECTOR_01_LAYER_1ATLAS_DU_STATUS_FWSETSTATES
any_in
in_state
    1
FATAL
do
&END_IN_STATE_WHEN2
    0
&THIS_OBJECT
*WHEN
 ( ANY_IN STATUS_MMG_SIDE_A_SECTOR_01......STATUS_FWSETSTATES IN_STATE ERROR )
    1    0
    2
STATUS_MMG_SIDE_A_SECTOR_01_LAYER_1ATLAS_DU_STATUS_FWSETSTATES
any_in
in_state
    1
ERROR
do
&END_IN_STATE_WHEN3
    0
&THIS_OBJECT
*WHEN
 ( ANY_IN STATUS_MMG_SIDE_A_SECTOR_01......ATUS_FWSETSTATES IN_STATE WARNING )
    1    0
    2
STATUS_MMG_SIDE_A_SECTOR_01_LAYER_1ATLAS_DU_STATUS_FWSETSTATES
any_in
in_state
    1
WARNING
do
&END_IN_STATE_WHEN4
    0
&THIS_OBJECT
*WHEN
 ( ALL_IN STATUS_MMG_SIDE_A_SECTOR_01......DU_STATUS_FWSETSTATES IN_STATE OK )
    1    0
    2
STATUS_MMG_SIDE_A_SECTOR_01_LAYER_1ATLAS_DU_STATUS_FWSETSTATES
all_in
in_state
    1
OK
do
&NULL
    0
&THIS_OBJECT
*ACTION
&END_IN_STATE_WHEN0
    0    0
*BLOCK
  0  0
terminate
UNINITIALIZED
*END_ACTION
*ACTION
&END_IN_STATE_WHEN1
    0    0
*BLOCK
  0  0
terminate
UNINITIALIZED
*END_ACTION
*ACTION
&END_IN_STATE_WHEN2
    0    0
*BLOCK
  0  0
terminate
FATAL
*END_ACTION
*ACTION
&END_IN_STATE_WHEN3
    0    0
*BLOCK
  0  0
terminate
ERROR
*END_ACTION
*ACTION
&END_IN_STATE_WHEN4
    0    0
*BLOCK
  0  0
terminate
WARNING
*END_ACTION
*END_STATE
*STATE
WARNING
    0
*WHEN
 ( STATUS_MMG_SIDE_A_SECTOR_01_LAYER_1ATLAS_DU_STATUS_FWSETACTIONS EMPTY )
    1    0
    3
STATUS_MMG_SIDE_A_SECTOR_01_LAYER_1ATLAS_DU_STATUS_FWSETACTIONS
empty
do
&END_IN_STATE_WHEN0
    0
&THIS_OBJECT
*WHEN
 ( ANY_IN STATUS_MMG_SIDE_A_SECTOR_01......TES IN_STATE {UNINITIALIZED,DEAD} )
    1    0
    2
STATUS_MMG_SIDE_A_SECTOR_01_LAYER_1ATLAS_DU_STATUS_FWSETSTATES
any_in
in_state
    2
UNINITIALIZED
DEAD
do
&END_IN_STATE_WHEN1
    0
&THIS_OBJECT
*WHEN
 ( ANY_IN STATUS_MMG_SIDE_A_SECTOR_01......STATUS_FWSETSTATES IN_STATE FATAL )
    1    0
    2
STATUS_MMG_SIDE_A_SECTOR_01_LAYER_1ATLAS_DU_STATUS_FWSETSTATES
any_in
in_state
    1
FATAL
do
&END_IN_STATE_WHEN2
    0
&THIS_OBJECT
*WHEN
 ( ANY_IN STATUS_MMG_SIDE_A_SECTOR_01......STATUS_FWSETSTATES IN_STATE ERROR )
    1    0
    2
STATUS_MMG_SIDE_A_SECTOR_01_LAYER_1ATLAS_DU_STATUS_FWSETSTATES
any_in
in_state
    1
ERROR
do
&END_IN_STATE_WHEN3
    0
&THIS_OBJECT
*WHEN
 ( ANY_IN STATUS_MMG_SIDE_A_SECTOR_01......ATUS_FWSETSTATES IN_STATE WARNING )
    1    0
    2
STATUS_MMG_SIDE_A_SECTOR_01_LAYER_1ATLAS_DU_STATUS_FWSETSTATES
any_in
in_state
    1
WARNING
do
&NULL
    0
&THIS_OBJECT
*WHEN
 ( ALL_IN STATUS_MMG_SIDE_A_SECTOR_01......DU_STATUS_FWSETSTATES IN_STATE OK )
    1    0
    2
STATUS_MMG_SIDE_A_SECTOR_01_LAYER_1ATLAS_DU_STATUS_FWSETSTATES
all_in
in_state
    1
OK
do
&END_IN_STATE_WHEN5
    0
&THIS_OBJECT
*ACTION
&END_IN_STATE_WHEN0
    0    0
*BLOCK
  0  0
terminate
UNINITIALIZED
*END_ACTION
*ACTION
&END_IN_STATE_WHEN1
    0    0
*BLOCK
  0  0
terminate
UNINITIALIZED
*END_ACTION
*ACTION
&END_IN_STATE_WHEN2
    0    0
*BLOCK
  0  0
terminate
FATAL
*END_ACTION
*ACTION
&END_IN_STATE_WHEN3
    0    0
*BLOCK
  0  0
terminate
ERROR
*END_ACTION
*ACTION
&END_IN_STATE_WHEN5
    0    0
*BLOCK
  0  0
terminate
OK
*END_ACTION
*END_STATE
*STATE
ERROR
    0
*WHEN
 ( STATUS_MMG_SIDE_A_SECTOR_01_LAYER_1ATLAS_DU_STATUS_FWSETACTIONS EMPTY )
    1    0
    3
STATUS_MMG_SIDE_A_SECTOR_01_LAYER_1ATLAS_DU_STATUS_FWSETACTIONS
empty
do
&END_IN_STATE_WHEN0
    0
&THIS_OBJECT
*WHEN
 ( ANY_IN STATUS_MMG_SIDE_A_SECTOR_01......TES IN_STATE {UNINITIALIZED,DEAD} )
    1    0
    2
STATUS_MMG_SIDE_A_SECTOR_01_LAYER_1ATLAS_DU_STATUS_FWSETSTATES
any_in
in_state
    2
UNINITIALIZED
DEAD
do
&END_IN_STATE_WHEN1
    0
&THIS_OBJECT
*WHEN
 ( ANY_IN STATUS_MMG_SIDE_A_SECTOR_01......STATUS_FWSETSTATES IN_STATE FATAL )
    1    0
    2
STATUS_MMG_SIDE_A_SECTOR_01_LAYER_1ATLAS_DU_STATUS_FWSETSTATES
any_in
in_state
    1
FATAL
do
&END_IN_STATE_WHEN2
    0
&THIS_OBJECT
*WHEN
 ( ANY_IN STATUS_MMG_SIDE_A_SECTOR_01......STATUS_FWSETSTATES IN_STATE ERROR )
    1    0
    2
STATUS_MMG_SIDE_A_SECTOR_01_LAYER_1ATLAS_DU_STATUS_FWSETSTATES
any_in
in_state
    1
ERROR
do
&NULL
    0
&THIS_OBJECT
*WHEN
 ( ANY_IN STATUS_MMG_SIDE_A_SECTOR_01......ATUS_FWSETSTATES IN_STATE WARNING )
    1    0
    2
STATUS_MMG_SIDE_A_SECTOR_01_LAYER_1ATLAS_DU_STATUS_FWSETSTATES
any_in
in_state
    1
WARNING
do
&END_IN_STATE_WHEN4
    0
&THIS_OBJECT
*WHEN
 ( ALL_IN STATUS_MMG_SIDE_A_SECTOR_01......DU_STATUS_FWSETSTATES IN_STATE OK )
    1    0
    2
STATUS_MMG_SIDE_A_SECTOR_01_LAYER_1ATLAS_DU_STATUS_FWSETSTATES
all_in
in_state
    1
OK
do
&END_IN_STATE_WHEN5
    0
&THIS_OBJECT
*ACTION
&END_IN_STATE_WHEN0
    0    0
*BLOCK
  0  0
terminate
UNINITIALIZED
*END_ACTION
*ACTION
&END_IN_STATE_WHEN1
    0    0
*BLOCK
  0  0
terminate
UNINITIALIZED
*END_ACTION
*ACTION
&END_IN_STATE_WHEN2
    0    0
*BLOCK
  0  0
terminate
FATAL
*END_ACTION
*ACTION
&END_IN_STATE_WHEN4
    0    0
*BLOCK
  0  0
terminate
WARNING
*END_ACTION
*ACTION
&END_IN_STATE_WHEN5
    0    0
*BLOCK
  0  0
terminate
OK
*END_ACTION
*END_STATE
*STATE
FATAL
    0
*WHEN
 ( STATUS_MMG_SIDE_A_SECTOR_01_LAYER_1ATLAS_DU_STATUS_FWSETACTIONS EMPTY )
    1    0
    3
STATUS_MMG_SIDE_A_SECTOR_01_LAYER_1ATLAS_DU_STATUS_FWSETACTIONS
empty
do
&END_IN_STATE_WHEN0
    0
&THIS_OBJECT
*WHEN
 ( ANY_IN STATUS_MMG_SIDE_A_SECTOR_01......TES IN_STATE {UNINITIALIZED,DEAD} )
    1    0
    2
STATUS_MMG_SIDE_A_SECTOR_01_LAYER_1ATLAS_DU_STATUS_FWSETSTATES
any_in
in_state
    2
UNINITIALIZED
DEAD
do
&END_IN_STATE_WHEN1
    0
&THIS_OBJECT
*WHEN
 ( ANY_IN STATUS_MMG_SIDE_A_SECTOR_01......STATUS_FWSETSTATES IN_STATE FATAL )
    1    0
    2
STATUS_MMG_SIDE_A_SECTOR_01_LAYER_1ATLAS_DU_STATUS_FWSETSTATES
any_in
in_state
    1
FATAL
do
&NULL
    0
&THIS_OBJECT
*WHEN
 ( ANY_IN STATUS_MMG_SIDE_A_SECTOR_01......STATUS_FWSETSTATES IN_STATE ERROR )
    1    0
    2
STATUS_MMG_SIDE_A_SECTOR_01_LAYER_1ATLAS_DU_STATUS_FWSETSTATES
any_in
in_state
    1
ERROR
do
&END_IN_STATE_WHEN3
    0
&THIS_OBJECT
*WHEN
 ( ANY_IN STATUS_MMG_SIDE_A_SECTOR_01......ATUS_FWSETSTATES IN_STATE WARNING )
    1    0
    2
STATUS_MMG_SIDE_A_SECTOR_01_LAYER_1ATLAS_DU_STATUS_FWSETSTATES
any_in
in_state
    1
WARNING
do
&END_IN_STATE_WHEN4
    0
&THIS_OBJECT
*WHEN
 ( ALL_IN STATUS_MMG_SIDE_A_SECTOR_01......DU_STATUS_FWSETSTATES IN_STATE OK )
    1    0
    2
STATUS_MMG_SIDE_A_SECTOR_01_LAYER_1ATLAS_DU_STATUS_FWSETSTATES
all_in
in_state
    1
OK
do
&END_IN_STATE_WHEN5
    0
&THIS_OBJECT
*ACTION
&END_IN_STATE_WHEN0
    0    0
*BLOCK
  0  0
terminate
UNINITIALIZED
*END_ACTION
*ACTION
&END_IN_STATE_WHEN1
    0    0
*BLOCK
  0  0
terminate
UNINITIALIZED
*END_ACTION
*ACTION
&END_IN_STATE_WHEN3
    0    0
*BLOCK
  0  0
terminate
ERROR
*END_ACTION
*ACTION
&END_IN_STATE_WHEN4
    0    0
*BLOCK
  0  0
terminate
WARNING
*END_ACTION
*ACTION
&END_IN_STATE_WHEN5
    0    0
*BLOCK
  0  0
terminate
OK
*END_ACTION
*END_STATE
*END_CLASS
*OBJECT
STATUS_MMG_SIDE_A_SECTOR_01_LAYER_1
    1    0    0
STATUS_MMG_SIDE_A_SECTOR_01_LAYER_1TOP_ATLAS_STATUS_CLASS
*END_OBJECT
*CLASS
STATUS_MMG_SIDE_A_SECTOR_01_LAYER_1ATLAS_DU_STATUS_FWDEVMODE_CLASS
    0    0
*STATE
READY
    0
*ACTION
DISABLE
    1    0
STRING
DEVICE
&nodefault
*BLOCK
  0  0
insert
    0
&VAL_OF_DEVICE
STATUS_MMG_SIDE_A_SECTOR_01_LAYER_1ATLAS_DU_STATUS_FWSETSTATES
insert
    0
&VAL_OF_DEVICE
STATUS_MMG_SIDE_A_SECTOR_01_LAYER_1ATLAS_DU_STATUS_FWSETACTIONS
terminate
READY
*END_ACTION
*ACTION
ENABLE
    1    0
STRING
DEVICE
&nodefault
*BLOCK
  0  0
insert
    1
&VAL_OF_DEVICE
STATUS_MMG_SIDE_A_SECTOR_01_LAYER_1ATLAS_DU_STATUS_FWSETSTATES
insert
    1
&VAL_OF_DEVICE
STATUS_MMG_SIDE_A_SECTOR_01_LAYER_1ATLAS_DU_STATUS_FWSETACTIONS
terminate
READY
*END_ACTION
*END_STATE
*END_CLASS
*OBJECT
STATUS_MMG_SIDE_A_SECTOR_01_LAYER_1ATLAS_DU_STATUS_FWDM
    1    0    0
STATUS_MMG_SIDE_A_SECTOR_01_LAYER_1ATLAS_DU_STATUS_FWDEVMODE_CLASS
*END_OBJECT
*CLASS
STATUS_MMG_SIDE_A_SECTOR_01_LAYER_1ATLAS_DU_STATUS_CLASS
    0    0
*STATE
UNINITIALIZED
    0
*ACTION
GOTO_OK
    0    0
*BLOCK
  0  0
terminate
OK
*END_ACTION
*ACTION
GOTO_WARNING
    0    0
*BLOCK
  0  0
terminate
WARNING
*END_ACTION
*ACTION
GOTO_ERROR
    0    0
*BLOCK
  0  0
terminate
ERROR
*END_ACTION
*ACTION
GOTO_FATAL
    0    0
*BLOCK
  0  0
terminate
FATAL
*END_ACTION
*END_STATE
*STATE
OK
    0
*ACTION
GOTO_WARNING
    0    0
*BLOCK
  0  0
terminate
WARNING
*END_ACTION
*ACTION
GOTO_ERROR
    0    0
*BLOCK
  0  0
terminate
ERROR
*END_ACTION
*ACTION
GOTO_FATAL
    0    0
*BLOCK
  0  0
terminate
FATAL
*END_ACTION
*ACTION
GOTO_UNINITIALIZED
    0    0
*BLOCK
  0  0
terminate
UNINITIALIZED
*END_ACTION
*END_STATE
*STATE
WARNING
    0
*ACTION
GOTO_OK
    0    0
*BLOCK
  0  0
terminate
OK
*END_ACTION
*ACTION
GOTO_ERROR
    0    0
*BLOCK
  0  0
terminate
ERROR
*END_ACTION
*ACTION
GOTO_FATAL
    0    0
*BLOCK
  0  0
terminate
FATAL
*END_ACTION
*ACTION
GOTO_UNINITIALIZED
    0    0
*BLOCK
  0  0
terminate
UNINITIALIZED
*END_ACTION
*END_STATE
*STATE
ERROR
    0
*ACTION
GOTO_OK
    0    0
*BLOCK
  0  0
terminate
OK
*END_ACTION
*ACTION
GOTO_WARNING
    0    0
*BLOCK
  0  0
terminate
WARNING
*END_ACTION
*ACTION
GOTO_FATAL
    0    0
*BLOCK
  0  0
terminate
FATAL
*END_ACTION
*ACTION
GOTO_UNINITIALIZED
    0    0
*BLOCK
  0  0
terminate
UNINITIALIZED
*END_ACTION
*END_STATE
*STATE
FATAL
    0
*ACTION
GOTO_OK
    0    0
*BLOCK
  0  0
terminate
OK
*END_ACTION
*ACTION
GOTO_WARNING
    0    0
*BLOCK
  0  0
terminate
WARNING
*END_ACTION
*ACTION
GOTO_ERROR
    0    0
*BLOCK
  0  0
terminate
ERROR
*END_ACTION
*ACTION
GOTO_UNINITIALIZED
    0    0
*BLOCK
  0  0
terminate
UNINITIALIZED
*END_ACTION
*END_STATE
*END_CLASS
*OBJECT
STATUS_MMG_SIDE_A_SECTOR_01_LAYER_1_BOARD_01
    1    0    0
STATUS_MMG_SIDE_A_SECTOR_01_LAYER_1ATLAS_DU_STATUS_CLASS
*END_OBJECT
*OBJECT
STATUS_MMG_SIDE_A_SECTOR_01_LAYER_1_BOARD_04
    1    0    0
STATUS_MMG_SIDE_A_SECTOR_01_LAYER_1ATLAS_DU_STATUS_CLASS
*END_OBJECT
*OBJECT
STATUS_MMG_SIDE_A_SECTOR_01_LAYER_1_BOARD_05
    1    0    0
STATUS_MMG_SIDE_A_SECTOR_01_LAYER_1ATLAS_DU_STATUS_CLASS
*END_OBJECT
*OBJECT
STATUS_MMG_SIDE_A_SECTOR_01_LAYER_1_BOARD_08
    1    0    0
STATUS_MMG_SIDE_A_SECTOR_01_LAYER_1ATLAS_DU_STATUS_CLASS
*END_OBJECT
*OBJECT
STATUS_MMG_SIDE_A_SECTOR_01_LAYER_1_BOARD_09
    1    0    0
STATUS_MMG_SIDE_A_SECTOR_01_LAYER_1ATLAS_DU_STATUS_CLASS
*END_OBJECT
*OBJECT
STATUS_MMG_SIDE_A_SECTOR_01_LAYER_1_BOARD_10
    1    0    0
STATUS_MMG_SIDE_A_SECTOR_01_LAYER_1ATLAS_DU_STATUS_CLASS
*END_OBJECT
*OBJECT
STATUS_MMG_SIDE_A_SECTOR_01_LAYER_1_BOARD_11
    1    0    0
STATUS_MMG_SIDE_A_SECTOR_01_LAYER_1ATLAS_DU_STATUS_CLASS
*END_OBJECT
*OBJECT
STATUS_MMG_SIDE_A_SECTOR_01_LAYER_1_BOARD_12
    1    0    0
STATUS_MMG_SIDE_A_SECTOR_01_LAYER_1ATLAS_DU_STATUS_CLASS
*END_OBJECT
*OBJECT
STATUS_MMG_SIDE_A_SECTOR_01_LAYER_1_BOARD_13
    1    0    0
STATUS_MMG_SIDE_A_SECTOR_01_LAYER_1ATLAS_DU_STATUS_CLASS
*END_OBJECT
*OBJECT
STATUS_MMG_SIDE_A_SECTOR_01_LAYER_1_BOARD_14
    1    0    0
STATUS_MMG_SIDE_A_SECTOR_01_LAYER_1ATLAS_DU_STATUS_CLASS
*END_OBJECT
*OBJECT
STATUS_MMG_SIDE_A_SECTOR_01_LAYER_1_BOARD_15
    1    0    0
STATUS_MMG_SIDE_A_SECTOR_01_LAYER_1ATLAS_DU_STATUS_CLASS
*END_OBJECT
*OBJECT
STATUS_MMG_SIDE_A_SECTOR_01_LAYER_1_BOARD_16
    1    0    0
STATUS_MMG_SIDE_A_SECTOR_01_LAYER_1ATLAS_DU_STATUS_CLASS
*END_OBJECT
*OBJECT
STATUS_MMG_SIDE_A_SECTOR_01_LAYER_1_BOARD_17
    1    0    0
STATUS_MMG_SIDE_A_SECTOR_01_LAYER_1ATLAS_DU_STATUS_CLASS
*END_OBJECT
*OBJECT
STATUS_MMG_SIDE_A_SECTOR_01_LAYER_1_BOARD_18
    1    0    0
STATUS_MMG_SIDE_A_SECTOR_01_LAYER_1ATLAS_DU_STATUS_CLASS
*END_OBJECT
*OBJECT
STATUS_MMG_SIDE_A_SECTOR_01_LAYER_1_BOARD_19
    1    0    0
STATUS_MMG_SIDE_A_SECTOR_01_LAYER_1ATLAS_DU_STATUS_CLASS
*END_OBJECT
*OBJECT
STATUS_MMG_SIDE_A_SECTOR_01_LAYER_1_BOARD_20
    1    0    0
STATUS_MMG_SIDE_A_SECTOR_01_LAYER_1ATLAS_DU_STATUS_CLASS
*END_OBJECT
*OBJECT
STATUS_MMG_SIDE_A_SECTOR_01_LAYER_1_BOARD_21
    1    0    0
STATUS_MMG_SIDE_A_SECTOR_01_LAYER_1ATLAS_DU_STATUS_CLASS
*END_OBJECT
*OBJECT
STATUS_MMG_SIDE_A_SECTOR_01_LAYER_1_BOARD_22
    1    0    0
STATUS_MMG_SIDE_A_SECTOR_01_LAYER_1ATLAS_DU_STATUS_CLASS
*END_OBJECT
*OBJECT
STATUS_MMG_SIDE_A_SECTOR_01_LAYER_1_BOARD_23
    1    0    0
STATUS_MMG_SIDE_A_SECTOR_01_LAYER_1ATLAS_DU_STATUS_CLASS
*END_OBJECT
*OBJECT
STATUS_MMG_SIDE_A_SECTOR_01_LAYER_1_BOARD_24
    1    0    0
STATUS_MMG_SIDE_A_SECTOR_01_LAYER_1ATLAS_DU_STATUS_CLASS
*END_OBJECT
*OBJECT
STATUS_MMG_SIDE_A_SECTOR_01_LAYER_1_BOARD_25
    1    0    0
STATUS_MMG_SIDE_A_SECTOR_01_LAYER_1ATLAS_DU_STATUS_CLASS
*END_OBJECT
*OBJECT
STATUS_MMG_SIDE_A_SECTOR_01_LAYER_1_BOARD_28
    1    0    0
STATUS_MMG_SIDE_A_SECTOR_01_LAYER_1ATLAS_DU_STATUS_CLASS
*END_OBJECT
*OBJECT
STATUS_MMG_SIDE_A_SECTOR_01_LAYER_1_BOARD_29
    1    0    0
STATUS_MMG_SIDE_A_SECTOR_01_LAYER_1ATLAS_DU_STATUS_CLASS
*END_OBJECT
*OBJECT
STATUS_MMG_SIDE_A_SECTOR_01_LAYER_1_BOARD_32
    1    0    0
STATUS_MMG_SIDE_A_SECTOR_01_LAYER_1ATLAS_DU_STATUS_CLASS
*END_OBJECT
*OBJECTSET
STATUS_MMG_SIDE_A_SECTOR_01_LAYER_1ATLAS_DU_STATUS_FWSETSTATES
    1   24
VOID
STATUS_MMG_SIDE_A_SECTOR_01_LAYER_1_BOARD_01
STATUS_MMG_SIDE_A_SECTOR_01_LAYER_1_BOARD_04
STATUS_MMG_SIDE_A_SECTOR_01_LAYER_1_BOARD_05
STATUS_MMG_SIDE_A_SECTOR_01_LAYER_1_BOARD_08
STATUS_MMG_SIDE_A_SECTOR_01_LAYER_1_BOARD_09
STATUS_MMG_SIDE_A_SECTOR_01_LAYER_1_BOARD_10
STATUS_MMG_SIDE_A_SECTOR_01_LAYER_1_BOARD_11
STATUS_MMG_SIDE_A_SECTOR_01_LAYER_1_BOARD_12
STATUS_MMG_SIDE_A_SECTOR_01_LAYER_1_BOARD_13
STATUS_MMG_SIDE_A_SECTOR_01_LAYER_1_BOARD_14
STATUS_MMG_SIDE_A_SECTOR_01_LAYER_1_BOARD_15
STATUS_MMG_SIDE_A_SECTOR_01_LAYER_1_BOARD_16
STATUS_MMG_SIDE_A_SECTOR_01_LAYER_1_BOARD_17
STATUS_MMG_SIDE_A_SECTOR_01_LAYER_1_BOARD_18
STATUS_MMG_SIDE_A_SECTOR_01_LAYER_1_BOARD_19
STATUS_MMG_SIDE_A_SECTOR_01_LAYER_1_BOARD_20
STATUS_MMG_SIDE_A_SECTOR_01_LAYER_1_BOARD_21
STATUS_MMG_SIDE_A_SECTOR_01_LAYER_1_BOARD_22
STATUS_MMG_SIDE_A_SECTOR_01_LAYER_1_BOARD_23
STATUS_MMG_SIDE_A_SECTOR_01_LAYER_1_BOARD_24
STATUS_MMG_SIDE_A_SECTOR_01_LAYER_1_BOARD_25
STATUS_MMG_SIDE_A_SECTOR_01_LAYER_1_BOARD_28
STATUS_MMG_SIDE_A_SECTOR_01_LAYER_1_BOARD_29
STATUS_MMG_SIDE_A_SECTOR_01_LAYER_1_BOARD_32
*END_OBJECTSET
*OBJECTSET
STATUS_MMG_SIDE_A_SECTOR_01_LAYER_1ATLAS_DU_STATUS_FWSETACTIONS
    1   24
VOID
STATUS_MMG_SIDE_A_SECTOR_01_LAYER_1_BOARD_01
STATUS_MMG_SIDE_A_SECTOR_01_LAYER_1_BOARD_04
STATUS_MMG_SIDE_A_SECTOR_01_LAYER_1_BOARD_05
STATUS_MMG_SIDE_A_SECTOR_01_LAYER_1_BOARD_08
STATUS_MMG_SIDE_A_SECTOR_01_LAYER_1_BOARD_09
STATUS_MMG_SIDE_A_SECTOR_01_LAYER_1_BOARD_10
STATUS_MMG_SIDE_A_SECTOR_01_LAYER_1_BOARD_11
STATUS_MMG_SIDE_A_SECTOR_01_LAYER_1_BOARD_12
STATUS_MMG_SIDE_A_SECTOR_01_LAYER_1_BOARD_13
STATUS_MMG_SIDE_A_SECTOR_01_LAYER_1_BOARD_14
STATUS_MMG_SIDE_A_SECTOR_01_LAYER_1_BOARD_15
STATUS_MMG_SIDE_A_SECTOR_01_LAYER_1_BOARD_16
STATUS_MMG_SIDE_A_SECTOR_01_LAYER_1_BOARD_17
STATUS_MMG_SIDE_A_SECTOR_01_LAYER_1_BOARD_18
STATUS_MMG_SIDE_A_SECTOR_01_LAYER_1_BOARD_19
STATUS_MMG_SIDE_A_SECTOR_01_LAYER_1_BOARD_20
STATUS_MMG_SIDE_A_SECTOR_01_LAYER_1_BOARD_21
STATUS_MMG_SIDE_A_SECTOR_01_LAYER_1_BOARD_22
STATUS_MMG_SIDE_A_SECTOR_01_LAYER_1_BOARD_23
STATUS_MMG_SIDE_A_SECTOR_01_LAYER_1_BOARD_24
STATUS_MMG_SIDE_A_SECTOR_01_LAYER_1_BOARD_25
STATUS_MMG_SIDE_A_SECTOR_01_LAYER_1_BOARD_28
STATUS_MMG_SIDE_A_SECTOR_01_LAYER_1_BOARD_29
STATUS_MMG_SIDE_A_SECTOR_01_LAYER_1_BOARD_32
*END_OBJECTSET
*OBJECTSETUNION
STATUS_MMG_SIDE_A_SECTOR_01_LAYER_1FWCHILDREN_FWSETACTIONS
    1
STATUS_MMG_SIDE_A_SECTOR_01_LAYER_1ATLAS_DU_STATUS_FWSETACTIONS
*END_OBJECTSETUNION
*OBJECTSETUNION
STATUS_MMG_SIDE_A_SECTOR_01_LAYER_1FWCHILDREN_FWSETSTATES
    1
STATUS_MMG_SIDE_A_SECTOR_01_LAYER_1ATLAS_DU_STATUS_FWSETSTATES
*END_OBJECTSETUNION
*CLASS
STATUS_MMG_SIDE_A_SECTOR_01_LAYER_2TOP_ATLAS_STATUS_CLASS
    0    0
*STATE
UNINITIALIZED
    0
*WHEN
 ( STATUS_MMG_SIDE_A_SECTOR_01_LAYER_2ATLAS_DU_STATUS_FWSETACTIONS EMPTY )
    1    0
    3
STATUS_MMG_SIDE_A_SECTOR_01_LAYER_2ATLAS_DU_STATUS_FWSETACTIONS
empty
do
&NULL
    0
&THIS_OBJECT
*WHEN
 ( ANY_IN STATUS_MMG_SIDE_A_SECTOR_01......TES IN_STATE {UNINITIALIZED,DEAD} )
    1    0
    2
STATUS_MMG_SIDE_A_SECTOR_01_LAYER_2ATLAS_DU_STATUS_FWSETSTATES
any_in
in_state
    2
UNINITIALIZED
DEAD
do
&NULL
    0
&THIS_OBJECT
*WHEN
 ( ANY_IN STATUS_MMG_SIDE_A_SECTOR_01......STATUS_FWSETSTATES IN_STATE FATAL )
    1    0
    2
STATUS_MMG_SIDE_A_SECTOR_01_LAYER_2ATLAS_DU_STATUS_FWSETSTATES
any_in
in_state
    1
FATAL
do
&END_IN_STATE_WHEN2
    0
&THIS_OBJECT
*WHEN
 ( ANY_IN STATUS_MMG_SIDE_A_SECTOR_01......STATUS_FWSETSTATES IN_STATE ERROR )
    1    0
    2
STATUS_MMG_SIDE_A_SECTOR_01_LAYER_2ATLAS_DU_STATUS_FWSETSTATES
any_in
in_state
    1
ERROR
do
&END_IN_STATE_WHEN3
    0
&THIS_OBJECT
*WHEN
 ( ANY_IN STATUS_MMG_SIDE_A_SECTOR_01......ATUS_FWSETSTATES IN_STATE WARNING )
    1    0
    2
STATUS_MMG_SIDE_A_SECTOR_01_LAYER_2ATLAS_DU_STATUS_FWSETSTATES
any_in
in_state
    1
WARNING
do
&END_IN_STATE_WHEN4
    0
&THIS_OBJECT
*WHEN
 ( ALL_IN STATUS_MMG_SIDE_A_SECTOR_01......DU_STATUS_FWSETSTATES IN_STATE OK )
    1    0
    2
STATUS_MMG_SIDE_A_SECTOR_01_LAYER_2ATLAS_DU_STATUS_FWSETSTATES
all_in
in_state
    1
OK
do
&END_IN_STATE_WHEN5
    0
&THIS_OBJECT
*ACTION
&END_IN_STATE_WHEN2
    0    0
*BLOCK
  0  0
terminate
FATAL
*END_ACTION
*ACTION
&END_IN_STATE_WHEN3
    0    0
*BLOCK
  0  0
terminate
ERROR
*END_ACTION
*ACTION
&END_IN_STATE_WHEN4
    0    0
*BLOCK
  0  0
terminate
WARNING
*END_ACTION
*ACTION
&END_IN_STATE_WHEN5
    0    0
*BLOCK
  0  0
terminate
OK
*END_ACTION
*END_STATE
*STATE
OK
    0
*WHEN
 ( STATUS_MMG_SIDE_A_SECTOR_01_LAYER_2ATLAS_DU_STATUS_FWSETACTIONS EMPTY )
    1    0
    3
STATUS_MMG_SIDE_A_SECTOR_01_LAYER_2ATLAS_DU_STATUS_FWSETACTIONS
empty
do
&END_IN_STATE_WHEN0
    0
&THIS_OBJECT
*WHEN
 ( ANY_IN STATUS_MMG_SIDE_A_SECTOR_01......TES IN_STATE {UNINITIALIZED,DEAD} )
    1    0
    2
STATUS_MMG_SIDE_A_SECTOR_01_LAYER_2ATLAS_DU_STATUS_FWSETSTATES
any_in
in_state
    2
UNINITIALIZED
DEAD
do
&END_IN_STATE_WHEN1
    0
&THIS_OBJECT
*WHEN
 ( ANY_IN STATUS_MMG_SIDE_A_SECTOR_01......STATUS_FWSETSTATES IN_STATE FATAL )
    1    0
    2
STATUS_MMG_SIDE_A_SECTOR_01_LAYER_2ATLAS_DU_STATUS_FWSETSTATES
any_in
in_state
    1
FATAL
do
&END_IN_STATE_WHEN2
    0
&THIS_OBJECT
*WHEN
 ( ANY_IN STATUS_MMG_SIDE_A_SECTOR_01......STATUS_FWSETSTATES IN_STATE ERROR )
    1    0
    2
STATUS_MMG_SIDE_A_SECTOR_01_LAYER_2ATLAS_DU_STATUS_FWSETSTATES
any_in
in_state
    1
ERROR
do
&END_IN_STATE_WHEN3
    0
&THIS_OBJECT
*WHEN
 ( ANY_IN STATUS_MMG_SIDE_A_SECTOR_01......ATUS_FWSETSTATES IN_STATE WARNING )
    1    0
    2
STATUS_MMG_SIDE_A_SECTOR_01_LAYER_2ATLAS_DU_STATUS_FWSETSTATES
any_in
in_state
    1
WARNING
do
&END_IN_STATE_WHEN4
    0
&THIS_OBJECT
*WHEN
 ( ALL_IN STATUS_MMG_SIDE_A_SECTOR_01......DU_STATUS_FWSETSTATES IN_STATE OK )
    1    0
    2
STATUS_MMG_SIDE_A_SECTOR_01_LAYER_2ATLAS_DU_STATUS_FWSETSTATES
all_in
in_state
    1
OK
do
&NULL
    0
&THIS_OBJECT
*ACTION
&END_IN_STATE_WHEN0
    0    0
*BLOCK
  0  0
terminate
UNINITIALIZED
*END_ACTION
*ACTION
&END_IN_STATE_WHEN1
    0    0
*BLOCK
  0  0
terminate
UNINITIALIZED
*END_ACTION
*ACTION
&END_IN_STATE_WHEN2
    0    0
*BLOCK
  0  0
terminate
FATAL
*END_ACTION
*ACTION
&END_IN_STATE_WHEN3
    0    0
*BLOCK
  0  0
terminate
ERROR
*END_ACTION
*ACTION
&END_IN_STATE_WHEN4
    0    0
*BLOCK
  0  0
terminate
WARNING
*END_ACTION
*END_STATE
*STATE
WARNING
    0
*WHEN
 ( STATUS_MMG_SIDE_A_SECTOR_01_LAYER_2ATLAS_DU_STATUS_FWSETACTIONS EMPTY )
    1    0
    3
STATUS_MMG_SIDE_A_SECTOR_01_LAYER_2ATLAS_DU_STATUS_FWSETACTIONS
empty
do
&END_IN_STATE_WHEN0
    0
&THIS_OBJECT
*WHEN
 ( ANY_IN STATUS_MMG_SIDE_A_SECTOR_01......TES IN_STATE {UNINITIALIZED,DEAD} )
    1    0
    2
STATUS_MMG_SIDE_A_SECTOR_01_LAYER_2ATLAS_DU_STATUS_FWSETSTATES
any_in
in_state
    2
UNINITIALIZED
DEAD
do
&END_IN_STATE_WHEN1
    0
&THIS_OBJECT
*WHEN
 ( ANY_IN STATUS_MMG_SIDE_A_SECTOR_01......STATUS_FWSETSTATES IN_STATE FATAL )
    1    0
    2
STATUS_MMG_SIDE_A_SECTOR_01_LAYER_2ATLAS_DU_STATUS_FWSETSTATES
any_in
in_state
    1
FATAL
do
&END_IN_STATE_WHEN2
    0
&THIS_OBJECT
*WHEN
 ( ANY_IN STATUS_MMG_SIDE_A_SECTOR_01......STATUS_FWSETSTATES IN_STATE ERROR )
    1    0
    2
STATUS_MMG_SIDE_A_SECTOR_01_LAYER_2ATLAS_DU_STATUS_FWSETSTATES
any_in
in_state
    1
ERROR
do
&END_IN_STATE_WHEN3
    0
&THIS_OBJECT
*WHEN
 ( ANY_IN STATUS_MMG_SIDE_A_SECTOR_01......ATUS_FWSETSTATES IN_STATE WARNING )
    1    0
    2
STATUS_MMG_SIDE_A_SECTOR_01_LAYER_2ATLAS_DU_STATUS_FWSETSTATES
any_in
in_state
    1
WARNING
do
&NULL
    0
&THIS_OBJECT
*WHEN
 ( ALL_IN STATUS_MMG_SIDE_A_SECTOR_01......DU_STATUS_FWSETSTATES IN_STATE OK )
    1    0
    2
STATUS_MMG_SIDE_A_SECTOR_01_LAYER_2ATLAS_DU_STATUS_FWSETSTATES
all_in
in_state
    1
OK
do
&END_IN_STATE_WHEN5
    0
&THIS_OBJECT
*ACTION
&END_IN_STATE_WHEN0
    0    0
*BLOCK
  0  0
terminate
UNINITIALIZED
*END_ACTION
*ACTION
&END_IN_STATE_WHEN1
    0    0
*BLOCK
  0  0
terminate
UNINITIALIZED
*END_ACTION
*ACTION
&END_IN_STATE_WHEN2
    0    0
*BLOCK
  0  0
terminate
FATAL
*END_ACTION
*ACTION
&END_IN_STATE_WHEN3
    0    0
*BLOCK
  0  0
terminate
ERROR
*END_ACTION
*ACTION
&END_IN_STATE_WHEN5
    0    0
*BLOCK
  0  0
terminate
OK
*END_ACTION
*END_STATE
*STATE
ERROR
    0
*WHEN
 ( STATUS_MMG_SIDE_A_SECTOR_01_LAYER_2ATLAS_DU_STATUS_FWSETACTIONS EMPTY )
    1    0
    3
STATUS_MMG_SIDE_A_SECTOR_01_LAYER_2ATLAS_DU_STATUS_FWSETACTIONS
empty
do
&END_IN_STATE_WHEN0
    0
&THIS_OBJECT
*WHEN
 ( ANY_IN STATUS_MMG_SIDE_A_SECTOR_01......TES IN_STATE {UNINITIALIZED,DEAD} )
    1    0
    2
STATUS_MMG_SIDE_A_SECTOR_01_LAYER_2ATLAS_DU_STATUS_FWSETSTATES
any_in
in_state
    2
UNINITIALIZED
DEAD
do
&END_IN_STATE_WHEN1
    0
&THIS_OBJECT
*WHEN
 ( ANY_IN STATUS_MMG_SIDE_A_SECTOR_01......STATUS_FWSETSTATES IN_STATE FATAL )
    1    0
    2
STATUS_MMG_SIDE_A_SECTOR_01_LAYER_2ATLAS_DU_STATUS_FWSETSTATES
any_in
in_state
    1
FATAL
do
&END_IN_STATE_WHEN2
    0
&THIS_OBJECT
*WHEN
 ( ANY_IN STATUS_MMG_SIDE_A_SECTOR_01......STATUS_FWSETSTATES IN_STATE ERROR )
    1    0
    2
STATUS_MMG_SIDE_A_SECTOR_01_LAYER_2ATLAS_DU_STATUS_FWSETSTATES
any_in
in_state
    1
ERROR
do
&NULL
    0
&THIS_OBJECT
*WHEN
 ( ANY_IN STATUS_MMG_SIDE_A_SECTOR_01......ATUS_FWSETSTATES IN_STATE WARNING )
    1    0
    2
STATUS_MMG_SIDE_A_SECTOR_01_LAYER_2ATLAS_DU_STATUS_FWSETSTATES
any_in
in_state
    1
WARNING
do
&END_IN_STATE_WHEN4
    0
&THIS_OBJECT
*WHEN
 ( ALL_IN STATUS_MMG_SIDE_A_SECTOR_01......DU_STATUS_FWSETSTATES IN_STATE OK )
    1    0
    2
STATUS_MMG_SIDE_A_SECTOR_01_LAYER_2ATLAS_DU_STATUS_FWSETSTATES
all_in
in_state
    1
OK
do
&END_IN_STATE_WHEN5
    0
&THIS_OBJECT
*ACTION
&END_IN_STATE_WHEN0
    0    0
*BLOCK
  0  0
terminate
UNINITIALIZED
*END_ACTION
*ACTION
&END_IN_STATE_WHEN1
    0    0
*BLOCK
  0  0
terminate
UNINITIALIZED
*END_ACTION
*ACTION
&END_IN_STATE_WHEN2
    0    0
*BLOCK
  0  0
terminate
FATAL
*END_ACTION
*ACTION
&END_IN_STATE_WHEN4
    0    0
*BLOCK
  0  0
terminate
WARNING
*END_ACTION
*ACTION
&END_IN_STATE_WHEN5
    0    0
*BLOCK
  0  0
terminate
OK
*END_ACTION
*END_STATE
*STATE
FATAL
    0
*WHEN
 ( STATUS_MMG_SIDE_A_SECTOR_01_LAYER_2ATLAS_DU_STATUS_FWSETACTIONS EMPTY )
    1    0
    3
STATUS_MMG_SIDE_A_SECTOR_01_LAYER_2ATLAS_DU_STATUS_FWSETACTIONS
empty
do
&END_IN_STATE_WHEN0
    0
&THIS_OBJECT
*WHEN
 ( ANY_IN STATUS_MMG_SIDE_A_SECTOR_01......TES IN_STATE {UNINITIALIZED,DEAD} )
    1    0
    2
STATUS_MMG_SIDE_A_SECTOR_01_LAYER_2ATLAS_DU_STATUS_FWSETSTATES
any_in
in_state
    2
UNINITIALIZED
DEAD
do
&END_IN_STATE_WHEN1
    0
&THIS_OBJECT
*WHEN
 ( ANY_IN STATUS_MMG_SIDE_A_SECTOR_01......STATUS_FWSETSTATES IN_STATE FATAL )
    1    0
    2
STATUS_MMG_SIDE_A_SECTOR_01_LAYER_2ATLAS_DU_STATUS_FWSETSTATES
any_in
in_state
    1
FATAL
do
&NULL
    0
&THIS_OBJECT
*WHEN
 ( ANY_IN STATUS_MMG_SIDE_A_SECTOR_01......STATUS_FWSETSTATES IN_STATE ERROR )
    1    0
    2
STATUS_MMG_SIDE_A_SECTOR_01_LAYER_2ATLAS_DU_STATUS_FWSETSTATES
any_in
in_state
    1
ERROR
do
&END_IN_STATE_WHEN3
    0
&THIS_OBJECT
*WHEN
 ( ANY_IN STATUS_MMG_SIDE_A_SECTOR_01......ATUS_FWSETSTATES IN_STATE WARNING )
    1    0
    2
STATUS_MMG_SIDE_A_SECTOR_01_LAYER_2ATLAS_DU_STATUS_FWSETSTATES
any_in
in_state
    1
WARNING
do
&END_IN_STATE_WHEN4
    0
&THIS_OBJECT
*WHEN
 ( ALL_IN STATUS_MMG_SIDE_A_SECTOR_01......DU_STATUS_FWSETSTATES IN_STATE OK )
    1    0
    2
STATUS_MMG_SIDE_A_SECTOR_01_LAYER_2ATLAS_DU_STATUS_FWSETSTATES
all_in
in_state
    1
OK
do
&END_IN_STATE_WHEN5
    0
&THIS_OBJECT
*ACTION
&END_IN_STATE_WHEN0
    0    0
*BLOCK
  0  0
terminate
UNINITIALIZED
*END_ACTION
*ACTION
&END_IN_STATE_WHEN1
    0    0
*BLOCK
  0  0
terminate
UNINITIALIZED
*END_ACTION
*ACTION
&END_IN_STATE_WHEN3
    0    0
*BLOCK
  0  0
terminate
ERROR
*END_ACTION
*ACTION
&END_IN_STATE_WHEN4
    0    0
*BLOCK
  0  0
terminate
WARNING
*END_ACTION
*ACTION
&END_IN_STATE_WHEN5
    0    0
*BLOCK
  0  0
terminate
OK
*END_ACTION
*END_STATE
*END_CLASS
*OBJECT
STATUS_MMG_SIDE_A_SECTOR_01_LAYER_2
    1    0    0
STATUS_MMG_SIDE_A_SECTOR_01_LAYER_2TOP_ATLAS_STATUS_CLASS
*END_OBJECT
*CLASS
STATUS_MMG_SIDE_A_SECTOR_01_LAYER_2ATLAS_DU_STATUS_FWDEVMODE_CLASS
    0    0
*STATE
READY
    0
*ACTION
DISABLE
    1    0
STRING
DEVICE
&nodefault
*BLOCK
  0  0
insert
    0
&VAL_OF_DEVICE
STATUS_MMG_SIDE_A_SECTOR_01_LAYER_2ATLAS_DU_STATUS_FWSETSTATES
insert
    0
&VAL_OF_DEVICE
STATUS_MMG_SIDE_A_SECTOR_01_LAYER_2ATLAS_DU_STATUS_FWSETACTIONS
terminate
READY
*END_ACTION
*ACTION
ENABLE
    1    0
STRING
DEVICE
&nodefault
*BLOCK
  0  0
insert
    1
&VAL_OF_DEVICE
STATUS_MMG_SIDE_A_SECTOR_01_LAYER_2ATLAS_DU_STATUS_FWSETSTATES
insert
    1
&VAL_OF_DEVICE
STATUS_MMG_SIDE_A_SECTOR_01_LAYER_2ATLAS_DU_STATUS_FWSETACTIONS
terminate
READY
*END_ACTION
*END_STATE
*END_CLASS
*OBJECT
STATUS_MMG_SIDE_A_SECTOR_01_LAYER_2ATLAS_DU_STATUS_FWDM
    1    0    0
STATUS_MMG_SIDE_A_SECTOR_01_LAYER_2ATLAS_DU_STATUS_FWDEVMODE_CLASS
*END_OBJECT
*CLASS
STATUS_MMG_SIDE_A_SECTOR_01_LAYER_2ATLAS_DU_STATUS_CLASS
    0    0
*STATE
UNINITIALIZED
    0
*ACTION
GOTO_OK
    0    0
*BLOCK
  0  0
terminate
OK
*END_ACTION
*ACTION
GOTO_WARNING
    0    0
*BLOCK
  0  0
terminate
WARNING
*END_ACTION
*ACTION
GOTO_ERROR
    0    0
*BLOCK
  0  0
terminate
ERROR
*END_ACTION
*ACTION
GOTO_FATAL
    0    0
*BLOCK
  0  0
terminate
FATAL
*END_ACTION
*END_STATE
*STATE
OK
    0
*ACTION
GOTO_WARNING
    0    0
*BLOCK
  0  0
terminate
WARNING
*END_ACTION
*ACTION
GOTO_ERROR
    0    0
*BLOCK
  0  0
terminate
ERROR
*END_ACTION
*ACTION
GOTO_FATAL
    0    0
*BLOCK
  0  0
terminate
FATAL
*END_ACTION
*ACTION
GOTO_UNINITIALIZED
    0    0
*BLOCK
  0  0
terminate
UNINITIALIZED
*END_ACTION
*END_STATE
*STATE
WARNING
    0
*ACTION
GOTO_OK
    0    0
*BLOCK
  0  0
terminate
OK
*END_ACTION
*ACTION
GOTO_ERROR
    0    0
*BLOCK
  0  0
terminate
ERROR
*END_ACTION
*ACTION
GOTO_FATAL
    0    0
*BLOCK
  0  0
terminate
FATAL
*END_ACTION
*ACTION
GOTO_UNINITIALIZED
    0    0
*BLOCK
  0  0
terminate
UNINITIALIZED
*END_ACTION
*END_STATE
*STATE
ERROR
    0
*ACTION
GOTO_OK
    0    0
*BLOCK
  0  0
terminate
OK
*END_ACTION
*ACTION
GOTO_WARNING
    0    0
*BLOCK
  0  0
terminate
WARNING
*END_ACTION
*ACTION
GOTO_FATAL
    0    0
*BLOCK
  0  0